new load.Ld335_LOAD_A phases=1 bus1=B2594.1.4 kv=0.249992666559  vminpu=0.1 vmaxpu=2
new load.Ld1540_LOAD_B phases=1 bus1=B1683.2.4 kv=0.249992666559  vminpu=0.1 vmaxpu=2
new load.Ld1971_LOAD_C phases=1 bus1=B1816.3.4 kv=0.249992666559  vminpu=0.1 vmaxpu=2
new load.Ld3757_LOAD_A phases=1 bus1=B2813.1.4 kv=0.249992666559  vminpu=0.1 vmaxpu=2
