new load.Ld2713_LOAD_A phases=1 bus1=B2223.1.4 kv=0.249992666559  vminpu=0.1 vmaxpu=2
