new load.Ld1804_LOAD_A phases=1 bus1=B1304.1.4 kv=0.249992666559  vminpu=0.1 vmaxpu=2
new load.Ld3812_LOAD_B phases=1 bus1=B765.2.4 kv=0.249992666559  vminpu=0.1 vmaxpu=2
