new load.Ld1212_LOAD_A phases=1 bus1=B2158.1.4 kv=0.249992666559  vminpu=0.1 vmaxpu=2
new load.Ld1615_LOAD_B phases=1 bus1=B2831.2.4 kv=0.249992666559  vminpu=0.1 vmaxpu=2
new load.Ld3571_LOAD_C phases=1 bus1=B3145.3.4 kv=0.249992666559  vminpu=0.1 vmaxpu=2
