new transformer.Tx3394 leadlag=euro xhl=0.0391918358845 wdg=1 bus=B169 conn=delta kv=11.0000000000 tap=1.02500000000 %r=0.400000000000 kva=315.000000000 wdg=2 bus=B921 conn=wye kv=0.433000000000 tap=1.00000000000 %r=0.400000000000 kva=315.000000000
