new load.Ld361_LOAD_A phases=1 bus1=B1012.1.4 kv=0.249992666559  vminpu=0.1 vmaxpu=2
