new load.Ld4032_LOAD_A phases=1 bus1=B635.1.4 kv=0.249992666559  vminpu=0.1 vmaxpu=2
