new transformer.Tx2831 leadlag=euro xhl=0.0391918358845 wdg=1 bus=B325 conn=delta kv=11.0000000000 tap=1.00000000000 %r=0.400000000000 kva=500.000000000 wdg=2 bus=B1090 conn=wye kv=0.433000000000 tap=1.00000000000 %r=0.400000000000 kva=500.000000000
