new transformer.Tx381 leadlag=euro xhl=0.0489897948557 wdg=1 bus=B2262 conn=delta kv=11.0000000000 tap=1.02500000000 %r=0.500000000000 kva=1000.00000000 wdg=2 bus=B1163 conn=wye kv=0.433000000000 tap=1.00000000000 %r=0.500000000000 kva=1000.00000000
