new load.Ld267_LOAD_A phases=1 bus1=B336.1.4 kv=0.249992666559  vminpu=0.1 vmaxpu=2
new load.Ld535_LOAD_B phases=1 bus1=B2664.2.4 kv=0.249992666559  vminpu=0.1 vmaxpu=2
