new transformer.Tx3913 leadlag=euro xhl=0.0391918358845 wdg=1 bus=B598 conn=delta kv=11.0000000000 tap=1.02500000000 %r=0.400000000000 kva=200.000000000 wdg=2 bus=B897 conn=wye kv=0.415000000000 tap=1.00000000000 %r=0.400000000000 kva=200.000000000
