new load.Ld3313_LOAD_A phases=1 bus1=B3230.1.4 kv=0.249992666559  vminpu=0.1 vmaxpu=2
new load.Ld3433_LOAD_B phases=1 bus1=B2656.2.4 kv=0.249992666559  vminpu=0.1 vmaxpu=2
