new transformer.Tx3170 xhl=0.0391918358845 wdg=1 bus=B2577 conn=delta kv=11.0000000000 tap=1.00000000000 %r=0.400000000000 kva=100.000000000 wdg=2 bus=B179 conn=wye kv=0.433000000000 tap=1.00000000000 %r=0.400000000000 kva=100.000000000
